/*--------------------------------*- C++ -*----------------------------------*\
  =========                 |
  \\      /  F ield         | OpenFOAM: The Open Source CFD Toolbox
   \\    /   O peration     | Website:  https://openfoam.org
    \\  /    A nd           | Version:  9
     \\/     M anipulation  |
\*---------------------------------------------------------------------------*/
FoamFile
{
    format      binary;
    class       volScalarField;
    location    "0/fluid";
    object      cellToRegion;
}
// * * * * * * * * * * * * * * * * * * * * * * * * * * * * * * * * * * * * * //

dimensions      [0 0 0 0 0 0 0];

internalField   uniform 5;

boundaryField
{
    inlet
    {
        type            zeroGradient;
    }
    outlet
    {
        type            zeroGradient;
    }
    fixedWallsBottom
    {
        type            zeroGradient;
    }
    emptyWalls
    {
        type            empty;
    }
    fluid_to_pcb
    {
        type            calculated;
        value           uniform 0;
    }
    fluid_to_battery
    {
        type            calculated;
        value           uniform 0;
    }
    fluid_to_heatsink
    {
        type            calculated;
        value           uniform 0;
    }
    fluid_to_metal
    {
        type            calculated;
        value           uniform 0;
    }
}


// ************************************************************************* //
