/*--------------------------------*- C++ -*----------------------------------*\
  =========                 |
  \\      /  F ield         | OpenFOAM: The Open Source CFD Toolbox
   \\    /   O peration     | Website:  https://openfoam.org
    \\  /    A nd           | Version:  9
     \\/     M anipulation  |
\*---------------------------------------------------------------------------*/
FoamFile
{
    format      ascii;
    class       volVectorField;
    location    "0/fluid";
    object      U;
}
// * * * * * * * * * * * * * * * * * * * * * * * * * * * * * * * * * * * * * //

dimensions      [ 0 1 -1 0 0 0 0 ];

internalField   uniform (0.001 0 0);

boundaryField
{
    #includeEtc "caseDicts/setConstraintTypes"

    inlet
    {
        type            fixedValue;
        value           uniform (0.001 0 0);
    }
    fixedWallsBottom
    {
        type            noSlip;
    }
    outlet
    {
        type            pressureInletOutletVelocity;
        value           $internalField;
    }
    fluid_to_metal
    {
        type            noSlip;
    }
    fluid_to_heatsink
    {
        type            noSlip;
    }
    fluid_to_battery
    {
        type            noSlip;
    }
    fluid_to_pcb
    {
        type            noSlip;
    }
}

// ************************************************************************* //
