/*--------------------------------*- C++ -*----------------------------------*\
  =========                 |
  \\      /  F ield         | OpenFOAM: The Open Source CFD Toolbox
   \\    /   O peration     | Website:  https://openfoam.org
    \\  /    A nd           | Version:  9
     \\/     M anipulation  |
\*---------------------------------------------------------------------------*/
FoamFile
{
    format      ascii;
    class       dictionary;
    object      blockMeshDict;
}
// * * * * * * * * * * * * * * * * * * * * * * * * * * * * * * * * * * * * * //

convertToMeters 0.001;

vertices
(
    	//üst
    (0 0 55) 	//8 +
    (500 0 55)	//9 +
    (500 500 55)  //10 - 8 + 
    (0 500 55)	//3 +
    (0 0 85)	//4 +
    (500 0 85)	//5 +
    (500 500 85)  //6 +
    (0 500 85)	//7 +
    
    	//orta - alt
    (0 0 45) 	//8 +
    (500 0 45)	//9 +
    (500 296 45)  //10 + 
    (0 296 45)	//11 +
    (0 0 55)	//12 - 
    (500 0 55)	//21
    (500 296 55)  //22
    (0 296 55)	//23
    
    	//sol
    (0 0 45) 	//24
    (97 0 45)	//25 - 8 = 17 gerek yok yerine 8 ++
    (97 500 45)  //26
    (0 500 45)	//27
    (0 0 55)	//28
    (97 0 55)	//29 - 8 = 21 gerek yok yerine 12 --
    (97 500 55)  //30
    (0 500 55)	//31
    
        //sag
    (403 0 45) 	//32 - 8 = 24 gerek yok yerine 9++
    (500 0 45)	//33
    (500 500 45)  //34
    (403 500 45)	//35
    (403 0 55)	//36
    (500 0 55)	//37
    (500 500 55)  //38
    (403 500 55)	//39
    
        //arka
    (97 0 45) 	//40
    (403 0 45)	//41
    (403 143 45)  //42 - 8 = 34 gerek yok yerine 9 ++
    (97 143 45)	//43 - 8 = 35 gerek yok yerine 8 ++
    (97 0 55)	//44
    (403 0 55)	//45
    (403 143 55)  //46
    (97 143 55)	//47 - 8 = 39 gerek yok yerine 12 ++
    
        //on
    (97 357 45)   //48
    (403 357 45)  //49
    (403 500 45)  //50
    (97 500 45)	  //51
    (97 357 55)	  //52 
    (403 357 55)  //53
    (403 500 55)  //54
    (97 500 55)	  //55
    
    	//sol alt
    (0 0 45)   //56
    (97 0 45)  //57
    (97 143 45)  //58 - 8 = 50 gerek yok yerine 8 ++
    (0 143 45)	  //59
    (0 0 55)	  //60 - 8 = 52 gerek yok
    (97 0 55)  //61
    (97 143 55)  //62 - 8 = 54 gerek yok yerine 12 ++
    (0 143 55)	  //63
    
    	//sol ust
    (0 357 45)   //64
    (97 357 45)  //65
    (97 500 45)  //66
    (0 500 45)	  //67
    (0 357 55)	  //68
    (97 357 55)  //69
    (97 500 55)  //70
    (0 500 55)	  //71 - 8 = 63 gerek yok yerine 3
    
    	//sag alt
    (403 0 45)   //72
    (500 0 45)  //73
    (500 143 45)  //74
    (403 143 45)	  //75 - 8 = 67 gerek yok yerine 9++
    (403 0 55)	  //76
    (500 0 55)  //77 - 8 = 69 gerek yok yerine 1
    (500 143 55)  //78
    (403 143 55)	  //79
    
    	//sag ust
    (403 357 45)   //80
    (500 357 45)  //81
    (500 500 45)  //82
    (403 500 45)  //83
    (403 357 55)	  //84
    (500 357 55)  //85
    (500 500 55)  //86 - 8 = 78 gerek yok yerine 2
    (403 500 55)	  //87
    
    	//orta - ust
    (0 0 45) 	//88 - 8 = 80 gerek yok yerine 11 ++
    (500 0 45)	//89 - 8 = 81 gerek yok yerine 10 ++
    (500 500 45)  //90
    (0 500 45)	//91
    (0 0 85)	//92
    (500 0 85)	//93
    (500 500 85)  //94
    (0 500 85)	//95
   
   
    	

);


blocks
(
    hex (80 81 82 83 84 85 86 87) (240 240 100) simpleGrading (1 1 5) //orta - ust
);

edges
(
);

boundary
(
    inlet
    {
        type patch;
        faces
        (
            (80 83 84 87) //bottom block
        );
    }
    outlet
    {
        type patch;
        faces
        (
            (81 82 85 86) //bottom block

        );
    }
    fixedWallsBottom // zerogradient temp olcak
    {
        type wall;
        faces
        (
            (80 81 82 83)
        );
    }
    emptyWalls
    {
        type empty;
        faces
        (
	    
            //bottom block
            (84 85 86 87)
            (80 81 84 85)
            (82 83 86 87)
        );
    }

    
);

mergePatchPairs
(
	
);

// ************************************************************************* //
