/*--------------------------------*- C++ -*----------------------------------*\
  =========                 |
  \\      /  F ield         | OpenFOAM: The Open Source CFD Toolbox
   \\    /   O peration     | Website:  https://openfoam.org
    \\  /    A nd           | Version:  9
     \\/     M anipulation  |
\*---------------------------------------------------------------------------*/
FoamFile
{
    format      binary;
    class       volScalarField;
    location    "0/heatsink";
    object      cellToRegion;
}
// * * * * * * * * * * * * * * * * * * * * * * * * * * * * * * * * * * * * * //

dimensions      [0 0 0 0 0 0 0];

internalField   uniform 2;

boundaryField
{
    heatsink_to_metal
    {
        type            calculated;
        value           uniform 0;
    }
    heatsink_to_battery
    {
        type            calculated;
        value           uniform 0;
    }
    heatsink_to_pcb
    {
        type            calculated;
        value           uniform 0;
    }
    heatsink_to_fluid
    {
        type            calculated;
        value           uniform 0;
    }
    heatsink_to_heater
    {
        type            calculated;
        value           uniform 0;
    }
}


// ************************************************************************* //
